Version 4
SHEET 1 1048 680
WIRE 48 64 -80 64
WIRE 224 64 160 64
WIRE 256 64 224 64
WIRE 368 64 320 64
WIRE 416 64 368 64
WIRE 544 64 416 64
WIRE 928 64 800 64
WIRE 416 128 416 64
WIRE 160 160 160 64
WIRE 224 192 224 64
WIRE 256 192 224 192
WIRE 384 192 320 192
WIRE -80 208 -80 64
WIRE 48 208 48 64
WIRE 192 240 160 240
WIRE 416 240 416 192
WIRE 416 240 192 240
WIRE 672 240 672 160
WIRE 672 240 416 240
WIRE 928 240 672 240
WIRE 160 256 160 240
WIRE 192 256 192 240
WIRE 416 272 416 240
WIRE 256 304 224 304
WIRE 368 304 368 64
WIRE 368 304 320 304
WIRE -80 416 -80 288
WIRE 48 416 48 288
WIRE 48 416 -80 416
WIRE 160 416 160 336
WIRE 224 416 224 304
WIRE 224 416 160 416
WIRE 256 416 224 416
WIRE 384 416 384 192
WIRE 384 416 320 416
WIRE 416 416 416 336
WIRE 416 416 384 416
WIRE 544 416 416 416
WIRE 928 416 800 416
WIRE 672 512 672 240
FLAG 192 256 0
FLAG 928 64 +12v
IOPIN 928 64 Out
FLAG 928 416 -12v
IOPIN 928 416 Out
FLAG 928 240 GND
IOPIN 928 240 Out
SYMBOL diode 256 80 R270
WINDOW 0 32 32 VTop 2
WINDOW 3 0 32 VBottom 2
SYMATTR InstName D1
SYMATTR Value 1N4007
SYMBOL diode 256 320 R270
WINDOW 0 32 32 VTop 2
WINDOW 3 0 32 VBottom 2
SYMATTR InstName D2
SYMATTR Value 1N4007
SYMBOL diode 320 176 R90
WINDOW 0 0 32 VBottom 2
WINDOW 3 32 32 VTop 2
SYMATTR InstName D3
SYMATTR Value 1N4007
SYMBOL diode 320 400 R90
WINDOW 0 0 32 VBottom 2
WINDOW 3 32 32 VTop 2
SYMATTR InstName D4
SYMATTR Value 1N4007
SYMBOL ind2 176 256 R180
WINDOW 0 36 80 Left 2
WINDOW 3 36 40 Left 2
SYMATTR InstName Ls1
SYMATTR Value 13µ
SYMATTR Type ind
SYMBOL ind2 32 192 R0
SYMATTR InstName L
SYMATTR Value 5m
SYMATTR Type ind
SYMBOL ind2 176 352 R180
WINDOW 0 36 80 Left 2
WINDOW 3 36 40 Left 2
SYMATTR InstName Ls2
SYMATTR Value 13µ
SYMATTR Type ind
SYMBOL cap 400 128 R0
SYMATTR InstName C1
SYMATTR Value 2200µ
SYMBOL cap 400 272 R0
SYMATTR InstName C2
SYMATTR Value 2200µ
SYMBOL voltage -80 192 R0
WINDOW 3 -90 99 Left 2
WINDOW 123 0 0 Left 0
WINDOW 39 -76 121 Left 2
SYMATTR Value SINE(0 300 50)
SYMATTR SpiceLine Rser=0.001
SYMATTR InstName V1
SYMBOL ZZZ\\VolReg\\7812 672 64 R0
SYMATTR InstName U1
SYMBOL ZZZ\\VolReg\\7912 672 416 R0
SYMATTR InstName U2
TEXT 48 128 Left 2 !K. L Ls1 Ls2 1
TEXT -168 528 Left 2 !.tran 100m
